@<TRIPOS>MOLECULE
sulfone molecule.mol
 72 71 0 0 0
SMALL
GASTEIGER
****

@<TRIPOS>ATOM
      1 C           8.9277  -12.0704   -1.4911 C.3     1  UNL1       -0.0562
      2 C          10.3779  -11.9225   -1.9159 C.3     1  UNL1       -0.0091
      3 C           3.1568   -6.8181   -8.4002 C.3     1  UNL1       -0.0429
      4 C           2.6210   -5.9416   -7.2641 C.3     1  UNL1        0.0741
      5 C           1.0760   -5.9089   -7.3090 C.3     1  UNL1       -0.0310
      6 S           3.2256   -6.5453   -5.6614 S.O2    1  UNL1       -0.0284
      7 C           5.0078   -6.4317   -5.7442 C.3     1  UNL1        0.0675
      8 C           5.6175   -6.9216   -4.4337 C.3     1  UNL1       -0.0142
      9 C           7.1413   -6.8500   -4.4363 C.3     1  UNL1        0.0672
     10 S           7.7744   -7.4081   -2.8580 S.O2    1  UNL1       -0.0307
     11 C           9.5564   -7.2770   -3.0281 C.3     1  UNL1        0.0691
     12 C          10.3694   -7.6939   -1.7807 C.3     1  UNL1       -0.0155
     13 C          10.2483   -9.1770   -1.3723 C.3     1  UNL1       -0.0023
     14 S          10.7244  -10.3163   -2.7153 S.3     1  UNL1       -0.1607
     15 O           7.4248   -8.8037   -2.7176 O.2     1  UNL1       -0.1743
     16 O           7.3381   -6.4235   -1.8861 O.2     1  UNL1       -0.1743
     17 O           2.8793   -7.9541   -5.5582 O.2     1  UNL1       -0.1741
     18 O           2.8477   -5.6093   -4.6240 O.2     1  UNL1       -0.1741
     19 C          10.0301   -6.8056   -0.5777 C.3     1  UNL1       -0.0602
     20 C           0.4575   -5.0070   -6.2409 C.3     1  UNL1       -0.0513
     21 C          -1.0618   -4.9806   -6.3073 C.3     1  UNL1       -0.0530
     22 C          -1.6071   -4.1047   -5.1804 C.3     1  UNL1       -0.0531
     23 C          -3.1275   -4.0696   -5.2233 C.3     1  UNL1       -0.0531
     24 C          -3.6758   -3.1864   -4.1102 C.3     1  UNL1       -0.0531
     25 C          -5.1985   -3.1509   -4.1608 C.3     1  UNL1       -0.0531
     26 C          -5.7543   -2.2654   -3.0515 C.3     1  UNL1       -0.0533
     27 C          -7.2781   -2.2291   -3.0959 C.3     1  UNL1       -0.0559
     28 C          -7.8333   -1.3460   -1.9920 C.3     1  UNL1       -0.0653
     29 H           8.6912  -13.1258   -1.3197 H       1  UNL1        0.0238
     30 H           8.2352  -11.6927   -2.2501 H       1  UNL1        0.0238
     31 H           8.7387  -11.5445   -0.5500 H       1  UNL1        0.0238
     32 H          10.6231  -12.7043   -2.6429 H       1  UNL1        0.0374
     33 H          11.0465  -12.0580   -1.0595 H       1  UNL1        0.0374
     34 H           2.8713   -6.4207   -9.3792 H       1  UNL1        0.0248
     35 H           2.7790   -7.8442   -8.3276 H       1  UNL1        0.0248
     36 H           4.2477   -6.8709   -8.3839 H       1  UNL1        0.0248
     37 H           3.0093   -4.9234   -7.3746 H       1  UNL1        0.0533
     38 H           0.6734   -6.9236   -7.1999 H       1  UNL1        0.0283
     39 H           0.7532   -5.5486   -8.2951 H       1  UNL1        0.0283
     40 H           5.2456   -5.3779   -5.9225 H       1  UNL1        0.0500
     41 H           5.3607   -7.0401   -6.5794 H       1  UNL1        0.0500
     42 H           5.2993   -7.9509   -4.2475 H       1  UNL1        0.0296
     43 H           5.2211   -6.3262   -3.6025 H       1  UNL1        0.0296
     44 H           7.4838   -5.8219   -4.5878 H       1  UNL1        0.0500
     45 H           7.5634   -7.4947   -5.2142 H       1  UNL1        0.0500
     46 H           9.7670   -6.2283   -3.2651 H       1  UNL1        0.0503
     47 H           9.8363   -7.8729   -3.9014 H       1  UNL1        0.0503
     48 H          11.4267   -7.5068   -2.0155 H       1  UNL1        0.0322
     49 H           9.2324   -9.3882   -1.0327 H       1  UNL1        0.0379
     50 H          10.9234   -9.3782   -0.5320 H       1  UNL1        0.0379
     51 H           8.9959   -6.9418   -0.2545 H       1  UNL1        0.0233
     52 H          10.1807   -5.7495   -0.8234 H       1  UNL1        0.0233
     53 H          10.6571   -7.0465    0.2858 H       1  UNL1        0.0233
     54 H           0.8579   -3.9904   -6.3320 H       1  UNL1        0.0266
     55 H           0.7043   -5.3751   -5.2448 H       1  UNL1        0.0266
     56 H          -1.4511   -6.0009   -6.1974 H       1  UNL1        0.0265
     57 H          -1.3907   -4.5999   -7.2772 H       1  UNL1        0.0265
     58 H          -1.2080   -3.0873   -5.2767 H       1  UNL1        0.0265
     59 H          -1.2737   -4.4886   -4.2084 H       1  UNL1        0.0265
     60 H          -3.5229   -5.0873   -5.1190 H       1  UNL1        0.0265
     61 H          -3.4579   -3.6893   -6.1967 H       1  UNL1        0.0265
     62 H          -3.2764   -2.1699   -4.2131 H       1  UNL1        0.0265
     63 H          -3.3446   -3.5671   -3.1362 H       1  UNL1        0.0265
     64 H          -5.5944   -4.1686   -4.0578 H       1  UNL1        0.0265
     65 H          -5.5261   -2.7731   -5.1371 H       1  UNL1        0.0265
     66 H          -5.3555   -1.2490   -3.1579 H       1  UNL1        0.0265
     67 H          -5.4204   -2.6432   -2.0773 H       1  UNL1        0.0265
     68 H          -7.6786   -3.2436   -2.9859 H       1  UNL1        0.0263
     69 H          -7.6141   -1.8504   -4.0682 H       1  UNL1        0.0263
     70 H          -7.5340   -1.7191   -1.0074 H       1  UNL1        0.0230
     71 H          -8.9257   -1.3286   -2.0344 H       1  UNL1        0.0230
     72 H          -7.4695   -0.3187   -2.0953 H       1  UNL1        0.0230
@<TRIPOS>BOND
     1     1     2    1
     2     3     4    1
     3     4     5    1
     4     4     6    1
     5     6     7    1
     6     7     8    1
     7     8     9    1
     8     9    10    1
     9    10    11    1
    10    11    12    1
    11    12    13    1
    12    13    14    1
    13    14     2    1
    14    10    15    2
    15    10    16    2
    16     6    17    2
    17     6    18    2
    18    12    19    1
    19     5    20    1
    20    20    21    1
    21    21    22    1
    22    22    23    1
    23    23    24    1
    24    24    25    1
    25    25    26    1
    26    26    27    1
    27    27    28    1
    28     1    29    1
    29     1    30    1
    30     1    31    1
    31     2    32    1
    32     2    33    1
    33     3    34    1
    34     3    35    1
    35     3    36    1
    36     4    37    1
    37     5    38    1
    38     5    39    1
    39     7    40    1
    40     7    41    1
    41     8    42    1
    42     8    43    1
    43     9    44    1
    44     9    45    1
    45    11    46    1
    46    11    47    1
    47    12    48    1
    48    13    49    1
    49    13    50    1
    50    19    51    1
    51    19    52    1
    52    19    53    1
    53    20    54    1
    54    20    55    1
    55    21    56    1
    56    21    57    1
    57    22    58    1
    58    22    59    1
    59    23    60    1
    60    23    61    1
    61    24    62    1
    62    24    63    1
    63    25    64    1
    64    25    65    1
    65    26    66    1
    66    26    67    1
    67    27    68    1
    68    27    69    1
    69    28    70    1
    70    28    71    1
    71    28    72    1
